* NGSPICE file created from spm.ext - technology: sky130A

* Black-box entry subcircuit for sky130_fd_sc_hd__buf_1 abstract view
.subckt sky130_fd_sc_hd__buf_1 VSUBS
.ends

* Black-box entry subcircuit for sky130_fd_sc_hd__inv_8 abstract view
.subckt sky130_fd_sc_hd__inv_8 VSUBS
.ends

* Black-box entry subcircuit for sky130_fd_sc_hd__decap_8 abstract view
.subckt sky130_fd_sc_hd__decap_8 VSUBS
.ends

* Black-box entry subcircuit for sky130_fd_sc_hd__decap_12 abstract view
.subckt sky130_fd_sc_hd__decap_12 VSUBS
.ends

* Black-box entry subcircuit for sky130_fd_sc_hd__decap_4 abstract view
.subckt sky130_fd_sc_hd__decap_4 VSUBS
.ends

* Black-box entry subcircuit for sky130_fd_sc_hd__clkbuf_1 abstract view
.subckt sky130_fd_sc_hd__clkbuf_1 VSUBS
.ends

* Black-box entry subcircuit for sky130_fd_sc_hd__dfrtp_4 abstract view
.subckt sky130_fd_sc_hd__dfrtp_4 VSUBS
.ends

* Black-box entry subcircuit for sky130_fd_sc_hd__fill_2 abstract view
.subckt sky130_fd_sc_hd__fill_2 VSUBS
.ends

* Black-box entry subcircuit for sky130_fd_sc_hd__a2bb2o_4 abstract view
.subckt sky130_fd_sc_hd__a2bb2o_4 VSUBS
.ends

* Black-box entry subcircuit for sky130_fd_sc_hd__tapvpwrvgnd_1 abstract view
.subckt sky130_fd_sc_hd__tapvpwrvgnd_1 VSUBS
.ends

* Black-box entry subcircuit for sky130_fd_sc_hd__fill_1 abstract view
.subckt sky130_fd_sc_hd__fill_1 VSUBS
.ends

* Black-box entry subcircuit for sky130_fd_sc_hd__xor2_4 abstract view
.subckt sky130_fd_sc_hd__xor2_4 VSUBS
.ends

* Black-box entry subcircuit for sky130_fd_sc_hd__decap_3 abstract view
.subckt sky130_fd_sc_hd__decap_3 VSUBS
.ends

* Black-box entry subcircuit for sky130_fd_sc_hd__decap_6 abstract view
.subckt sky130_fd_sc_hd__decap_6 VSUBS
.ends

* Black-box entry subcircuit for sky130_fd_sc_hd__o22a_4 abstract view
.subckt sky130_fd_sc_hd__o22a_4 VSUBS
.ends

* Black-box entry subcircuit for sky130_fd_sc_hd__and2_4 abstract view
.subckt sky130_fd_sc_hd__and2_4 VSUBS
.ends

* Black-box entry subcircuit for sky130_fd_sc_hd__clkbuf_16 abstract view
.subckt sky130_fd_sc_hd__clkbuf_16 VSUBS
.ends

* Black-box entry subcircuit for sky130_fd_sc_hd__a21boi_4 abstract view
.subckt sky130_fd_sc_hd__a21boi_4 VSUBS
.ends

* Black-box entry subcircuit for sky130_fd_sc_hd__or2_4 abstract view
.subckt sky130_fd_sc_hd__or2_4 VSUBS
.ends

.subckt spm clk p rst x[0] x[10] x[11] x[12] x[13] x[14] x[15] x[16] x[17] x[18] x[19]
+ x[1] x[20] x[21] x[22] x[23] x[24] x[25] x[26] x[27] x[28] x[29] x[2] x[30] x[31]
+ x[3] x[4] x[5] x[6] x[7] x[8] x[9] y VPWR VGND
X_432_ VSUBS sky130_fd_sc_hd__buf_1
X_501_ VSUBS sky130_fd_sc_hd__inv_8
XFILLER_9_126 VSUBS sky130_fd_sc_hd__decap_8
X_363_ _363_/VSUBS sky130_fd_sc_hd__buf_1
XFILLER_3_45 VSUBS sky130_fd_sc_hd__decap_12
XFILLER_36_236 VSUBS sky130_fd_sc_hd__decap_12
XFILLER_6_118 VSUBS sky130_fd_sc_hd__decap_8
XFILLER_12_32 FILLER_12_32/VSUBS sky130_fd_sc_hd__decap_4
XFILLER_37_51 VSUBS sky130_fd_sc_hd__decap_8
XFILLER_37_62 VSUBS sky130_fd_sc_hd__decap_4
X_346_ VSUBS sky130_fd_sc_hd__inv_8
X_415_ VSUBS sky130_fd_sc_hd__buf_1
XFILLER_23_53 VSUBS sky130_fd_sc_hd__decap_8
Xclkbuf_3_1_0_clk clkbuf_3_1_0_clk/VSUBS sky130_fd_sc_hd__clkbuf_1
X_680_ _680_/VSUBS sky130_fd_sc_hd__dfrtp_4
XFILLER_18_53 VSUBS sky130_fd_sc_hd__decap_8
XFILLER_4_227 VSUBS sky130_fd_sc_hd__decap_12
XFILLER_20_32 VSUBS sky130_fd_sc_hd__decap_4
X_663_ _663_/VSUBS sky130_fd_sc_hd__dfrtp_4
X_594_ VSUBS sky130_fd_sc_hd__inv_8
XFILLER_13_3 FILLER_13_3/VSUBS sky130_fd_sc_hd__decap_12
XFILLER_34_197 VSUBS sky130_fd_sc_hd__decap_12
XFILLER_25_164 VSUBS sky130_fd_sc_hd__fill_2
XFILLER_25_175 VSUBS sky130_fd_sc_hd__decap_8
XFILLER_15_65 FILLER_15_65/VSUBS sky130_fd_sc_hd__decap_12
XFILLER_25_197 VSUBS sky130_fd_sc_hd__decap_8
XFILLER_31_53 VSUBS sky130_fd_sc_hd__decap_8
XFILLER_0_230 VSUBS sky130_fd_sc_hd__decap_12
X_646_ VSUBS sky130_fd_sc_hd__dfrtp_4
X_577_ VSUBS sky130_fd_sc_hd__a2bb2o_4
XPHY_170 VSUBS sky130_fd_sc_hd__tapvpwrvgnd_1
XFILLER_31_123 VSUBS sky130_fd_sc_hd__fill_2
XPHY_181 VSUBS sky130_fd_sc_hd__tapvpwrvgnd_1
XPHY_192 VSUBS sky130_fd_sc_hd__tapvpwrvgnd_1
XFILLER_39_245 VSUBS sky130_fd_sc_hd__decap_8
XFILLER_22_167 VSUBS sky130_fd_sc_hd__decap_8
X_500_ VSUBS sky130_fd_sc_hd__inv_8
X_362_ _362_/VSUBS sky130_fd_sc_hd__buf_1
XFILLER_13_123 FILLER_13_123/VSUBS sky130_fd_sc_hd__fill_1
X_431_ VSUBS sky130_fd_sc_hd__buf_1
XFILLER_42_74 VSUBS sky130_fd_sc_hd__fill_2
XFILLER_42_85 VSUBS sky130_fd_sc_hd__decap_8
XFILLER_3_57 VSUBS sky130_fd_sc_hd__decap_4
X_629_ VSUBS sky130_fd_sc_hd__xor2_4
XFILLER_36_204 VSUBS sky130_fd_sc_hd__decap_8
XFILLER_36_248 VSUBS sky130_fd_sc_hd__decap_4
XFILLER_42_218 VSUBS sky130_fd_sc_hd__decap_12
XFILLER_10_137 VSUBS sky130_fd_sc_hd__fill_1
X_345_ VSUBS sky130_fd_sc_hd__inv_8
X_414_ VSUBS sky130_fd_sc_hd__buf_1
XFILLER_24_218 VSUBS sky130_fd_sc_hd__decap_8
XFILLER_15_207 FILLER_15_207/VSUBS sky130_fd_sc_hd__decap_12
XFILLER_23_87 VSUBS sky130_fd_sc_hd__decap_8
XFILLER_2_199 VSUBS sky130_fd_sc_hd__decap_12
XFILLER_2_188 VSUBS sky130_fd_sc_hd__decap_8
XFILLER_2_177 VSUBS sky130_fd_sc_hd__decap_8
XFILLER_20_243 VSUBS sky130_fd_sc_hd__decap_8
XFILLER_18_32 VSUBS sky130_fd_sc_hd__decap_4
XFILLER_7_236 VSUBS sky130_fd_sc_hd__decap_8
XFILLER_11_232 VSUBS sky130_fd_sc_hd__fill_1
XFILLER_37_184 VSUBS sky130_fd_sc_hd__decap_3
XFILLER_4_239 VSUBS sky130_fd_sc_hd__decap_12
X_662_ VSUBS sky130_fd_sc_hd__dfrtp_4
Xclkbuf_3_0_0_clk VSUBS sky130_fd_sc_hd__clkbuf_1
X_593_ VSUBS sky130_fd_sc_hd__xor2_4
XFILLER_28_151 VSUBS sky130_fd_sc_hd__fill_2
XFILLER_6_68 VSUBS sky130_fd_sc_hd__decap_8
XFILLER_19_184 VSUBS sky130_fd_sc_hd__fill_2
XFILLER_34_154 VSUBS sky130_fd_sc_hd__decap_3
XFILLER_15_77 FILLER_15_77/VSUBS sky130_fd_sc_hd__fill_1
XFILLER_0_242 VSUBS sky130_fd_sc_hd__decap_6
X_645_ _645_/VSUBS sky130_fd_sc_hd__dfrtp_4
X_576_ _576_/VSUBS sky130_fd_sc_hd__o22a_4
XPHY_160 VSUBS sky130_fd_sc_hd__tapvpwrvgnd_1
XPHY_171 VSUBS sky130_fd_sc_hd__tapvpwrvgnd_1
XPHY_182 VSUBS sky130_fd_sc_hd__tapvpwrvgnd_1
XPHY_193 VSUBS sky130_fd_sc_hd__tapvpwrvgnd_1
XFILLER_26_32 VSUBS sky130_fd_sc_hd__decap_4
X_361_ VSUBS sky130_fd_sc_hd__buf_1
XFILLER_13_168 FILLER_13_168/VSUBS sky130_fd_sc_hd__decap_12
X_430_ _430_/VSUBS sky130_fd_sc_hd__buf_1
XFILLER_42_97 VSUBS sky130_fd_sc_hd__decap_12
X_628_ VSUBS sky130_fd_sc_hd__a2bb2o_4
X_559_ VSUBS sky130_fd_sc_hd__inv_8
XFILLER_27_227 VSUBS sky130_fd_sc_hd__decap_12
XFILLER_42_208 VSUBS sky130_fd_sc_hd__decap_8
XFILLER_12_23 FILLER_12_23/VSUBS sky130_fd_sc_hd__decap_8
XFILLER_18_238 VSUBS sky130_fd_sc_hd__decap_12
X_413_ VSUBS sky130_fd_sc_hd__buf_1
X_344_ VSUBS sky130_fd_sc_hd__xor2_4
XFILLER_5_175 VSUBS sky130_fd_sc_hd__decap_8
XFILLER_5_142 VSUBS sky130_fd_sc_hd__decap_12
XFILLER_5_131 VSUBS sky130_fd_sc_hd__fill_2
XFILLER_32_241 VSUBS sky130_fd_sc_hd__decap_12
XFILLER_4_90 VSUBS sky130_fd_sc_hd__fill_2
XFILLER_15_219 FILLER_15_219/VSUBS sky130_fd_sc_hd__decap_3
XFILLER_3_3 FILLER_3_3/VSUBS sky130_fd_sc_hd__decap_12
XFILLER_2_145 VSUBS sky130_fd_sc_hd__decap_8
XFILLER_0_15 VSUBS sky130_fd_sc_hd__decap_12
XFILLER_9_79 VSUBS sky130_fd_sc_hd__fill_2
XFILLER_36_3 FILLER_36_3/VSUBS sky130_fd_sc_hd__decap_12
XFILLER_34_32 VSUBS sky130_fd_sc_hd__decap_12
XFILLER_4_207 VSUBS sky130_fd_sc_hd__decap_6
X_592_ VSUBS sky130_fd_sc_hd__a2bb2o_4
X_661_ VSUBS sky130_fd_sc_hd__dfrtp_4
XFILLER_34_166 VSUBS sky130_fd_sc_hd__decap_8
X_575_ VSUBS sky130_fd_sc_hd__buf_1
X_644_ VSUBS sky130_fd_sc_hd__dfrtp_4
XPHY_150 PHY_150/VSUBS sky130_fd_sc_hd__tapvpwrvgnd_1
XFILLER_16_177 FILLER_16_177/VSUBS sky130_fd_sc_hd__decap_8
XPHY_161 VSUBS sky130_fd_sc_hd__tapvpwrvgnd_1
XPHY_172 VSUBS sky130_fd_sc_hd__tapvpwrvgnd_1
XPHY_183 VSUBS sky130_fd_sc_hd__tapvpwrvgnd_1
XPHY_194 VSUBS sky130_fd_sc_hd__tapvpwrvgnd_1
X_360_ VSUBS sky130_fd_sc_hd__inv_8
XFILLER_26_77 VSUBS sky130_fd_sc_hd__decap_12
XFILLER_42_32 VSUBS sky130_fd_sc_hd__decap_12
XFILLER_3_15 VSUBS sky130_fd_sc_hd__decap_12
X_558_ VSUBS sky130_fd_sc_hd__inv_8
X_627_ VSUBS sky130_fd_sc_hd__o22a_4
XFILLER_8_162 FILLER_8_162/VSUBS sky130_fd_sc_hd__fill_1
X_489_ VSUBS sky130_fd_sc_hd__buf_1
XFILLER_27_239 VSUBS sky130_fd_sc_hd__decap_4
XFILLER_12_79 FILLER_12_79/VSUBS sky130_fd_sc_hd__fill_2
XFILLER_18_206 VSUBS sky130_fd_sc_hd__decap_8
X_412_ VSUBS sky130_fd_sc_hd__buf_1
X_343_ _343_/VSUBS sky130_fd_sc_hd__a2bb2o_4
XFILLER_5_154 VSUBS sky130_fd_sc_hd__decap_4
XFILLER_0_27 VSUBS sky130_fd_sc_hd__decap_4
XFILLER_29_3 VSUBS sky130_fd_sc_hd__decap_12
XFILLER_34_44 VSUBS sky130_fd_sc_hd__decap_12
XFILLER_7_227 VSUBS sky130_fd_sc_hd__fill_2
XFILLER_11_245 VSUBS sky130_fd_sc_hd__decap_8
XFILLER_34_99 VSUBS sky130_fd_sc_hd__fill_1
XFILLER_37_175 VSUBS sky130_fd_sc_hd__decap_8
XFILLER_20_57 VSUBS sky130_fd_sc_hd__decap_8
XFILLER_20_68 VSUBS sky130_fd_sc_hd__decap_12
X_591_ VSUBS sky130_fd_sc_hd__o22a_4
X_660_ VSUBS sky130_fd_sc_hd__dfrtp_4
XFILLER_6_15 VSUBS sky130_fd_sc_hd__decap_12
XFILLER_3_241 VSUBS sky130_fd_sc_hd__decap_3
XFILLER_19_120 VSUBS sky130_fd_sc_hd__fill_2
XFILLER_34_123 VSUBS sky130_fd_sc_hd__decap_8
XFILLER_34_145 VSUBS sky130_fd_sc_hd__decap_8
XFILLER_40_115 VSUBS sky130_fd_sc_hd__decap_3
XFILLER_0_211 VSUBS sky130_fd_sc_hd__decap_6
X_574_ VSUBS sky130_fd_sc_hd__and2_4
XFILLER_16_145 FILLER_16_145/VSUBS sky130_fd_sc_hd__decap_8
X_643_ VSUBS sky130_fd_sc_hd__dfrtp_4
XPHY_140 PHY_140/VSUBS sky130_fd_sc_hd__tapvpwrvgnd_1
XPHY_151 PHY_151/VSUBS sky130_fd_sc_hd__tapvpwrvgnd_1
XPHY_162 VSUBS sky130_fd_sc_hd__tapvpwrvgnd_1
XPHY_173 VSUBS sky130_fd_sc_hd__tapvpwrvgnd_1
XPHY_184 VSUBS sky130_fd_sc_hd__tapvpwrvgnd_1
XPHY_195 VSUBS sky130_fd_sc_hd__tapvpwrvgnd_1
XFILLER_31_148 VSUBS sky130_fd_sc_hd__decap_8
XFILLER_11_3 FILLER_11_3/VSUBS sky130_fd_sc_hd__decap_12
XFILLER_26_89 VSUBS sky130_fd_sc_hd__decap_3
XFILLER_42_44 VSUBS sky130_fd_sc_hd__decap_12
XFILLER_42_66 VSUBS sky130_fd_sc_hd__decap_8
XFILLER_3_27 VSUBS sky130_fd_sc_hd__decap_12
X_557_ VSUBS sky130_fd_sc_hd__xor2_4
X_488_ VSUBS sky130_fd_sc_hd__and2_4
X_626_ VSUBS sky130_fd_sc_hd__buf_1
XFILLER_12_36 FILLER_12_36/VSUBS sky130_fd_sc_hd__fill_1
XFILLER_37_66 VSUBS sky130_fd_sc_hd__fill_1
X_411_ VSUBS sky130_fd_sc_hd__buf_1
X_342_ VSUBS sky130_fd_sc_hd__o22a_4
XFILLER_41_210 VSUBS sky130_fd_sc_hd__decap_8
XFILLER_41_243 VSUBS sky130_fd_sc_hd__fill_1
XFILLER_5_111 VSUBS sky130_fd_sc_hd__decap_8
X_609_ VSUBS sky130_fd_sc_hd__inv_8
XFILLER_23_232 VSUBS sky130_fd_sc_hd__fill_1
XFILLER_9_15 VSUBS sky130_fd_sc_hd__decap_6
XFILLER_20_202 VSUBS sky130_fd_sc_hd__decap_12
XFILLER_11_224 VSUBS sky130_fd_sc_hd__decap_8
XFILLER_34_56 VSUBS sky130_fd_sc_hd__fill_1
XFILLER_41_3 FILLER_41_3/VSUBS sky130_fd_sc_hd__decap_12
XFILLER_37_132 VSUBS sky130_fd_sc_hd__decap_8
XFILLER_20_36 VSUBS sky130_fd_sc_hd__fill_1
XFILLER_29_45 VSUBS sky130_fd_sc_hd__decap_12
X_590_ VSUBS sky130_fd_sc_hd__buf_1
XFILLER_28_154 VSUBS sky130_fd_sc_hd__fill_1
XFILLER_10_91 VSUBS sky130_fd_sc_hd__fill_1
XFILLER_6_27 VSUBS sky130_fd_sc_hd__decap_4
X_642_ VSUBS sky130_fd_sc_hd__dfrtp_4
XPHY_130 VSUBS sky130_fd_sc_hd__tapvpwrvgnd_1
X_573_ _573_/VSUBS sky130_fd_sc_hd__inv_8
XPHY_141 PHY_141/VSUBS sky130_fd_sc_hd__tapvpwrvgnd_1
XPHY_152 PHY_152/VSUBS sky130_fd_sc_hd__tapvpwrvgnd_1
XPHY_163 VSUBS sky130_fd_sc_hd__tapvpwrvgnd_1
XPHY_174 VSUBS sky130_fd_sc_hd__tapvpwrvgnd_1
XPHY_185 VSUBS sky130_fd_sc_hd__tapvpwrvgnd_1
XPHY_196 VSUBS sky130_fd_sc_hd__tapvpwrvgnd_1
XFILLER_39_216 VSUBS sky130_fd_sc_hd__decap_8
XFILLER_22_116 VSUBS sky130_fd_sc_hd__decap_12
XFILLER_13_105 FILLER_13_105/VSUBS sky130_fd_sc_hd__decap_12
XFILLER_13_127 FILLER_13_127/VSUBS sky130_fd_sc_hd__decap_8
XFILLER_42_56 VSUBS sky130_fd_sc_hd__decap_6
XFILLER_3_39 VSUBS sky130_fd_sc_hd__decap_3
X_625_ VSUBS sky130_fd_sc_hd__and2_4
X_556_ VSUBS sky130_fd_sc_hd__a2bb2o_4
X_487_ VSUBS sky130_fd_sc_hd__inv_8
XFILLER_12_15 FILLER_12_15/VSUBS sky130_fd_sc_hd__decap_4
X_410_ _410_/VSUBS sky130_fd_sc_hd__buf_1
X_341_ VSUBS sky130_fd_sc_hd__buf_1
XFILLER_5_123 VSUBS sky130_fd_sc_hd__decap_8
XFILLER_32_211 VSUBS sky130_fd_sc_hd__decap_3
X_608_ VSUBS sky130_fd_sc_hd__inv_8
X_539_ VSUBS sky130_fd_sc_hd__buf_1
XFILLER_4_93 VSUBS sky130_fd_sc_hd__decap_8
XFILLER_23_36 VSUBS sky130_fd_sc_hd__decap_8
XFILLER_9_38 VSUBS sky130_fd_sc_hd__fill_1
XFILLER_1_181 VSUBS sky130_fd_sc_hd__fill_2
XFILLER_18_36 VSUBS sky130_fd_sc_hd__fill_1
XFILLER_11_236 VSUBS sky130_fd_sc_hd__decap_8
XFILLER_1_3 VSUBS sky130_fd_sc_hd__decap_12
XFILLER_6_251 VSUBS sky130_fd_sc_hd__fill_2
XFILLER_34_3 VSUBS sky130_fd_sc_hd__decap_12
XFILLER_20_15 VSUBS sky130_fd_sc_hd__decap_12
XFILLER_29_57 VSUBS sky130_fd_sc_hd__decap_4
XFILLER_29_79 VSUBS sky130_fd_sc_hd__fill_2
XFILLER_42_180 VSUBS sky130_fd_sc_hd__decap_6
XFILLER_15_15 FILLER_15_15/VSUBS sky130_fd_sc_hd__decap_4
XFILLER_25_114 VSUBS sky130_fd_sc_hd__decap_8
XFILLER_33_191 VSUBS sky130_fd_sc_hd__decap_8
X_572_ VSUBS sky130_fd_sc_hd__inv_8
X_641_ _641_/VSUBS sky130_fd_sc_hd__dfrtp_4
XPHY_131 VSUBS sky130_fd_sc_hd__tapvpwrvgnd_1
XPHY_120 VSUBS sky130_fd_sc_hd__tapvpwrvgnd_1
XPHY_142 PHY_142/VSUBS sky130_fd_sc_hd__tapvpwrvgnd_1
XPHY_153 PHY_153/VSUBS sky130_fd_sc_hd__tapvpwrvgnd_1
XPHY_164 VSUBS sky130_fd_sc_hd__tapvpwrvgnd_1
XPHY_175 VSUBS sky130_fd_sc_hd__tapvpwrvgnd_1
XPHY_186 VSUBS sky130_fd_sc_hd__tapvpwrvgnd_1
XPHY_197 VSUBS sky130_fd_sc_hd__tapvpwrvgnd_1
XPHY_0 VSUBS sky130_fd_sc_hd__decap_3
XFILLER_22_128 VSUBS sky130_fd_sc_hd__fill_2
XFILLER_13_117 FILLER_13_117/VSUBS sky130_fd_sc_hd__decap_4
XFILLER_26_36 VSUBS sky130_fd_sc_hd__fill_1
X_624_ VSUBS sky130_fd_sc_hd__buf_1
X_555_ VSUBS sky130_fd_sc_hd__o22a_4
XFILLER_8_154 FILLER_8_154/VSUBS sky130_fd_sc_hd__decap_8
X_486_ VSUBS sky130_fd_sc_hd__inv_8
X_340_ VSUBS sky130_fd_sc_hd__and2_4
XFILLER_41_245 VSUBS sky130_fd_sc_hd__decap_8
X_538_ VSUBS sky130_fd_sc_hd__and2_4
X_607_ VSUBS sky130_fd_sc_hd__xor2_4
X_469_ VSUBS sky130_fd_sc_hd__a2bb2o_4
XFILLER_23_15 VSUBS sky130_fd_sc_hd__decap_12
XFILLER_23_245 VSUBS sky130_fd_sc_hd__decap_8
XFILLER_2_116 VSUBS sky130_fd_sc_hd__decap_12
XFILLER_14_245 VSUBS sky130_fd_sc_hd__decap_8
XFILLER_20_215 VSUBS sky130_fd_sc_hd__decap_4
XFILLER_18_15 VSUBS sky130_fd_sc_hd__decap_12
XFILLER_7_219 VSUBS sky130_fd_sc_hd__decap_8
XFILLER_40_90 VSUBS sky130_fd_sc_hd__fill_2
XFILLER_27_3 VSUBS sky130_fd_sc_hd__decap_12
XFILLER_1_51 VSUBS sky130_fd_sc_hd__decap_8
XFILLER_1_62 VSUBS sky130_fd_sc_hd__decap_4
XFILLER_37_123 VSUBS sky130_fd_sc_hd__fill_2
XFILLER_20_27 VSUBS sky130_fd_sc_hd__decap_4
XFILLER_28_189 VSUBS sky130_fd_sc_hd__decap_12
XFILLER_10_93 VSUBS sky130_fd_sc_hd__decap_3
XFILLER_19_112 VSUBS sky130_fd_sc_hd__decap_8
XFILLER_15_27 FILLER_15_27/VSUBS sky130_fd_sc_hd__decap_12
XFILLER_25_137 VSUBS sky130_fd_sc_hd__decap_8
XFILLER_40_107 VSUBS sky130_fd_sc_hd__decap_8
XFILLER_31_15 VSUBS sky130_fd_sc_hd__decap_12
XFILLER_16_137 FILLER_16_137/VSUBS sky130_fd_sc_hd__fill_1
X_571_ VSUBS sky130_fd_sc_hd__xor2_4
X_640_ VSUBS sky130_fd_sc_hd__buf_1
XPHY_132 VSUBS sky130_fd_sc_hd__tapvpwrvgnd_1
XPHY_121 VSUBS sky130_fd_sc_hd__tapvpwrvgnd_1
XPHY_110 VSUBS sky130_fd_sc_hd__tapvpwrvgnd_1
XPHY_143 PHY_143/VSUBS sky130_fd_sc_hd__tapvpwrvgnd_1
XPHY_154 PHY_154/VSUBS sky130_fd_sc_hd__tapvpwrvgnd_1
XPHY_165 VSUBS sky130_fd_sc_hd__tapvpwrvgnd_1
XPHY_176 VSUBS sky130_fd_sc_hd__tapvpwrvgnd_1
XPHY_187 VSUBS sky130_fd_sc_hd__tapvpwrvgnd_1
XPHY_198 VSUBS sky130_fd_sc_hd__tapvpwrvgnd_1
XFILLER_31_107 VSUBS sky130_fd_sc_hd__decap_8
XFILLER_31_118 VSUBS sky130_fd_sc_hd__decap_4
XPHY_1 PHY_1/VSUBS sky130_fd_sc_hd__decap_3
XFILLER_26_15 VSUBS sky130_fd_sc_hd__decap_12
XFILLER_38_240 VSUBS sky130_fd_sc_hd__decap_12
XFILLER_21_140 VSUBS sky130_fd_sc_hd__decap_8
XFILLER_21_195 VSUBS sky130_fd_sc_hd__fill_1
X_554_ VSUBS sky130_fd_sc_hd__buf_1
X_623_ VSUBS sky130_fd_sc_hd__inv_8
X_485_ VSUBS sky130_fd_sc_hd__xor2_4
Xclkbuf_2_3_0_clk VSUBS sky130_fd_sc_hd__clkbuf_1
XFILLER_12_195 FILLER_12_195/VSUBS sky130_fd_sc_hd__fill_2
XFILLER_35_243 VSUBS sky130_fd_sc_hd__fill_1
XFILLER_26_221 VSUBS sky130_fd_sc_hd__fill_1
XFILLER_5_158 VSUBS sky130_fd_sc_hd__fill_1
X_537_ VSUBS sky130_fd_sc_hd__inv_8
X_468_ VSUBS sky130_fd_sc_hd__o22a_4
X_606_ VSUBS sky130_fd_sc_hd__a2bb2o_4
X_399_ VSUBS sky130_fd_sc_hd__buf_1
XFILLER_23_27 VSUBS sky130_fd_sc_hd__decap_6
XFILLER_23_224 VSUBS sky130_fd_sc_hd__decap_8
XFILLER_2_128 VSUBS sky130_fd_sc_hd__fill_1
XFILLER_18_27 VSUBS sky130_fd_sc_hd__decap_4
XFILLER_34_15 VSUBS sky130_fd_sc_hd__decap_12
XFILLER_1_74 VSUBS sky130_fd_sc_hd__decap_8
XFILLER_37_157 VSUBS sky130_fd_sc_hd__fill_2
XFILLER_29_15 VSUBS sky130_fd_sc_hd__decap_8
XFILLER_3_245 VSUBS sky130_fd_sc_hd__decap_8
XFILLER_19_146 VSUBS sky130_fd_sc_hd__decap_8
XFILLER_19_168 VSUBS sky130_fd_sc_hd__decap_12
XFILLER_42_193 VSUBS sky130_fd_sc_hd__fill_1
XFILLER_33_160 VSUBS sky130_fd_sc_hd__fill_1
XFILLER_31_38 VSUBS sky130_fd_sc_hd__fill_1
XPHY_100 VSUBS sky130_fd_sc_hd__tapvpwrvgnd_1
X_570_ VSUBS sky130_fd_sc_hd__a2bb2o_4
XPHY_122 PHY_122/VSUBS sky130_fd_sc_hd__tapvpwrvgnd_1
XPHY_111 VSUBS sky130_fd_sc_hd__tapvpwrvgnd_1
XPHY_133 VSUBS sky130_fd_sc_hd__tapvpwrvgnd_1
XPHY_144 PHY_144/VSUBS sky130_fd_sc_hd__tapvpwrvgnd_1
XPHY_155 PHY_155/VSUBS sky130_fd_sc_hd__tapvpwrvgnd_1
XPHY_166 VSUBS sky130_fd_sc_hd__tapvpwrvgnd_1
XPHY_177 VSUBS sky130_fd_sc_hd__tapvpwrvgnd_1
XPHY_188 VSUBS sky130_fd_sc_hd__tapvpwrvgnd_1
XPHY_199 VSUBS sky130_fd_sc_hd__tapvpwrvgnd_1
XPHY_2 VSUBS sky130_fd_sc_hd__decap_3
X_699_ _699_/VSUBS sky130_fd_sc_hd__dfrtp_4
Xclkbuf_0_clk VSUBS sky130_fd_sc_hd__clkbuf_16
XFILLER_7_62 VSUBS sky130_fd_sc_hd__decap_4
XFILLER_26_27 VSUBS sky130_fd_sc_hd__decap_4
XFILLER_38_252 FILLER_38_252/VSUBS sky130_fd_sc_hd__fill_1
XFILLER_42_15 VSUBS sky130_fd_sc_hd__decap_12
X_622_ VSUBS sky130_fd_sc_hd__inv_8
XFILLER_16_71 FILLER_16_71/VSUBS sky130_fd_sc_hd__decap_8
X_553_ VSUBS sky130_fd_sc_hd__and2_4
X_484_ VSUBS sky130_fd_sc_hd__a2bb2o_4
XFILLER_8_145 FILLER_8_145/VSUBS sky130_fd_sc_hd__decap_8
XFILLER_37_15 VSUBS sky130_fd_sc_hd__decap_12
XFILLER_37_59 VSUBS sky130_fd_sc_hd__fill_2
XFILLER_27_81 VSUBS sky130_fd_sc_hd__fill_1
X_605_ VSUBS sky130_fd_sc_hd__o22a_4
X_536_ VSUBS sky130_fd_sc_hd__inv_8
X_398_ _398_/VSUBS sky130_fd_sc_hd__buf_1
X_467_ VSUBS sky130_fd_sc_hd__buf_1
XFILLER_32_203 VSUBS sky130_fd_sc_hd__decap_8
XFILLER_23_236 VSUBS sky130_fd_sc_hd__decap_8
Xclkbuf_2_2_0_clk VSUBS sky130_fd_sc_hd__clkbuf_1
X_519_ VSUBS sky130_fd_sc_hd__o22a_4
XFILLER_34_27 VSUBS sky130_fd_sc_hd__decap_4
XFILLER_6_210 VSUBS sky130_fd_sc_hd__decap_4
XFILLER_24_71 VSUBS sky130_fd_sc_hd__decap_8
XFILLER_24_93 VSUBS sky130_fd_sc_hd__fill_2
XFILLER_28_158 VSUBS sky130_fd_sc_hd__decap_8
XFILLER_10_62 VSUBS sky130_fd_sc_hd__decap_8
XFILLER_32_3 FILLER_32_3/VSUBS sky130_fd_sc_hd__decap_12
XFILLER_0_249 FILLER_0_249/VSUBS sky130_fd_sc_hd__decap_4
XPHY_123 PHY_123/VSUBS sky130_fd_sc_hd__tapvpwrvgnd_1
XPHY_112 VSUBS sky130_fd_sc_hd__tapvpwrvgnd_1
XPHY_101 VSUBS sky130_fd_sc_hd__tapvpwrvgnd_1
XPHY_134 VSUBS sky130_fd_sc_hd__tapvpwrvgnd_1
XPHY_145 PHY_145/VSUBS sky130_fd_sc_hd__tapvpwrvgnd_1
XPHY_156 PHY_156/VSUBS sky130_fd_sc_hd__tapvpwrvgnd_1
XPHY_167 VSUBS sky130_fd_sc_hd__tapvpwrvgnd_1
XPHY_178 VSUBS sky130_fd_sc_hd__tapvpwrvgnd_1
XPHY_189 VSUBS sky130_fd_sc_hd__tapvpwrvgnd_1
XFILLER_21_50 VSUBS sky130_fd_sc_hd__decap_8
XPHY_3 PHY_3/VSUBS sky130_fd_sc_hd__decap_3
X_698_ VSUBS sky130_fd_sc_hd__dfrtp_4
XFILLER_21_164 VSUBS sky130_fd_sc_hd__decap_8
XFILLER_21_175 VSUBS sky130_fd_sc_hd__decap_8
XFILLER_42_27 VSUBS sky130_fd_sc_hd__decap_4
X_621_ VSUBS sky130_fd_sc_hd__xor2_4
X_552_ VSUBS sky130_fd_sc_hd__buf_1
X_483_ VSUBS sky130_fd_sc_hd__o22a_4
XFILLER_8_179 FILLER_8_179/VSUBS sky130_fd_sc_hd__decap_8
XFILLER_35_245 VSUBS sky130_fd_sc_hd__decap_8
XFILLER_12_19 FILLER_12_19/VSUBS sky130_fd_sc_hd__fill_1
XFILLER_37_27 VSUBS sky130_fd_sc_hd__decap_12
XFILLER_26_245 VSUBS sky130_fd_sc_hd__decap_8
X_535_ VSUBS sky130_fd_sc_hd__xor2_4
XFILLER_17_245 VSUBS sky130_fd_sc_hd__decap_8
X_604_ VSUBS sky130_fd_sc_hd__buf_1
X_397_ VSUBS sky130_fd_sc_hd__buf_1
X_466_ VSUBS sky130_fd_sc_hd__and2_4
XFILLER_32_215 VSUBS sky130_fd_sc_hd__decap_3
XFILLER_4_160 VSUBS sky130_fd_sc_hd__fill_1
XFILLER_14_226 VSUBS sky130_fd_sc_hd__decap_3
XFILLER_13_62 FILLER_13_62/VSUBS sky130_fd_sc_hd__decap_3
X_518_ _518_/VSUBS sky130_fd_sc_hd__buf_1
XFILLER_9_241 VSUBS sky130_fd_sc_hd__decap_3
X_449_ VSUBS sky130_fd_sc_hd__a21boi_4
XFILLER_1_98 VSUBS sky130_fd_sc_hd__decap_8
XFILLER_37_104 VSUBS sky130_fd_sc_hd__decap_12
Xclkbuf_2_1_0_clk VSUBS sky130_fd_sc_hd__clkbuf_1
XFILLER_28_115 VSUBS sky130_fd_sc_hd__fill_2
XFILLER_25_3 VSUBS sky130_fd_sc_hd__decap_12
XFILLER_15_19 FILLER_15_19/VSUBS sky130_fd_sc_hd__fill_1
XPHY_124 PHY_124/VSUBS sky130_fd_sc_hd__tapvpwrvgnd_1
XPHY_113 VSUBS sky130_fd_sc_hd__tapvpwrvgnd_1
XPHY_102 VSUBS sky130_fd_sc_hd__tapvpwrvgnd_1
XPHY_135 VSUBS sky130_fd_sc_hd__tapvpwrvgnd_1
XPHY_146 VSUBS sky130_fd_sc_hd__tapvpwrvgnd_1
XFILLER_16_107 FILLER_16_107/VSUBS sky130_fd_sc_hd__decap_8
XFILLER_16_118 FILLER_16_118/VSUBS sky130_fd_sc_hd__decap_8
XFILLER_16_129 FILLER_16_129/VSUBS sky130_fd_sc_hd__decap_8
XPHY_157 PHY_157/VSUBS sky130_fd_sc_hd__tapvpwrvgnd_1
XPHY_168 VSUBS sky130_fd_sc_hd__tapvpwrvgnd_1
XPHY_179 VSUBS sky130_fd_sc_hd__tapvpwrvgnd_1
X_697_ VSUBS sky130_fd_sc_hd__dfrtp_4
XPHY_4 PHY_4/VSUBS sky130_fd_sc_hd__decap_3
XFILLER_7_53 VSUBS sky130_fd_sc_hd__decap_8
XFILLER_38_221 VSUBS sky130_fd_sc_hd__fill_1
XFILLER_21_110 VSUBS sky130_fd_sc_hd__fill_1
XFILLER_21_187 VSUBS sky130_fd_sc_hd__decap_8
X_551_ VSUBS sky130_fd_sc_hd__inv_8
X_620_ VSUBS sky130_fd_sc_hd__a2bb2o_4
XFILLER_12_176 FILLER_12_176/VSUBS sky130_fd_sc_hd__decap_8
XFILLER_12_187 FILLER_12_187/VSUBS sky130_fd_sc_hd__decap_8
XFILLER_16_40 FILLER_16_40/VSUBS sky130_fd_sc_hd__decap_8
XFILLER_16_84 FILLER_16_84/VSUBS sky130_fd_sc_hd__decap_8
X_482_ VSUBS sky130_fd_sc_hd__buf_1
XFILLER_35_235 VSUBS sky130_fd_sc_hd__decap_8
XFILLER_37_39 VSUBS sky130_fd_sc_hd__decap_12
XFILLER_41_227 VSUBS sky130_fd_sc_hd__decap_12
XFILLER_5_106 VSUBS sky130_fd_sc_hd__fill_2
X_534_ VSUBS sky130_fd_sc_hd__a2bb2o_4
X_465_ VSUBS sky130_fd_sc_hd__inv_8
X_603_ VSUBS sky130_fd_sc_hd__and2_4
X_396_ VSUBS sky130_fd_sc_hd__buf_1
XFILLER_4_32 VSUBS sky130_fd_sc_hd__decap_12
XFILLER_13_74 FILLER_13_74/VSUBS sky130_fd_sc_hd__decap_8
XFILLER_1_131 VSUBS sky130_fd_sc_hd__fill_1
XFILLER_38_93 VSUBS sky130_fd_sc_hd__decap_8
X_517_ VSUBS sky130_fd_sc_hd__and2_4
X_448_ VSUBS sky130_fd_sc_hd__or2_4
XFILLER_20_219 VSUBS sky130_fd_sc_hd__fill_1
X_379_ VSUBS sky130_fd_sc_hd__buf_1
XFILLER_6_223 VSUBS sky130_fd_sc_hd__fill_2
XFILLER_24_84 VSUBS sky130_fd_sc_hd__decap_8
XFILLER_1_66 VSUBS sky130_fd_sc_hd__fill_1
XFILLER_37_116 VSUBS sky130_fd_sc_hd__decap_6
XFILLER_37_149 VSUBS sky130_fd_sc_hd__decap_8
XFILLER_19_95 VSUBS sky130_fd_sc_hd__decap_8
XFILLER_27_171 VSUBS sky130_fd_sc_hd__fill_1
XFILLER_27_193 VSUBS sky130_fd_sc_hd__decap_12
XFILLER_35_83 VSUBS sky130_fd_sc_hd__decap_8
XFILLER_18_3 FILLER_18_3/VSUBS sky130_fd_sc_hd__decap_12
XFILLER_0_218 VSUBS sky130_fd_sc_hd__decap_12
XPHY_125 PHY_125/VSUBS sky130_fd_sc_hd__tapvpwrvgnd_1
XPHY_114 VSUBS sky130_fd_sc_hd__tapvpwrvgnd_1
XPHY_103 VSUBS sky130_fd_sc_hd__tapvpwrvgnd_1
XPHY_136 VSUBS sky130_fd_sc_hd__tapvpwrvgnd_1
XPHY_147 VSUBS sky130_fd_sc_hd__tapvpwrvgnd_1
XPHY_158 VSUBS sky130_fd_sc_hd__tapvpwrvgnd_1
XPHY_169 VSUBS sky130_fd_sc_hd__tapvpwrvgnd_1
Xclkbuf_2_0_0_clk VSUBS sky130_fd_sc_hd__clkbuf_1
XPHY_5 PHY_5/VSUBS sky130_fd_sc_hd__decap_3
X_696_ VSUBS sky130_fd_sc_hd__dfrtp_4
XFILLER_30_133 VSUBS sky130_fd_sc_hd__decap_3
XFILLER_30_177 VSUBS sky130_fd_sc_hd__decap_8
XFILLER_38_211 VSUBS sky130_fd_sc_hd__decap_3
XFILLER_29_211 VSUBS sky130_fd_sc_hd__decap_12
X_481_ VSUBS sky130_fd_sc_hd__and2_4
X_550_ VSUBS sky130_fd_sc_hd__inv_8
XFILLER_8_104 FILLER_8_104/VSUBS sky130_fd_sc_hd__fill_1
XFILLER_32_62 VSUBS sky130_fd_sc_hd__decap_8
XFILLER_32_73 VSUBS sky130_fd_sc_hd__decap_8
XFILLER_32_84 VSUBS sky130_fd_sc_hd__decap_8
X_679_ VSUBS sky130_fd_sc_hd__dfrtp_4
XFILLER_41_239 VSUBS sky130_fd_sc_hd__decap_4
X_602_ VSUBS sky130_fd_sc_hd__inv_8
X_533_ VSUBS sky130_fd_sc_hd__o22a_4
XFILLER_17_236 VSUBS sky130_fd_sc_hd__decap_8
X_464_ VSUBS sky130_fd_sc_hd__inv_8
X_395_ VSUBS sky130_fd_sc_hd__buf_1
XFILLER_4_195 VSUBS sky130_fd_sc_hd__decap_12
XFILLER_4_184 VSUBS sky130_fd_sc_hd__decap_8
XFILLER_4_44 VSUBS sky130_fd_sc_hd__fill_1
XFILLER_14_206 VSUBS sky130_fd_sc_hd__decap_8
XFILLER_13_53 FILLER_13_53/VSUBS sky130_fd_sc_hd__decap_8
XFILLER_1_154 VSUBS sky130_fd_sc_hd__decap_8
XFILLER_1_187 VSUBS sky130_fd_sc_hd__decap_12
X_516_ _516_/VSUBS sky130_fd_sc_hd__buf_1
X_447_ VSUBS sky130_fd_sc_hd__and2_4
X_378_ VSUBS sky130_fd_sc_hd__buf_1
XFILLER_28_139 VSUBS sky130_fd_sc_hd__decap_12
XFILLER_3_205 VSUBS sky130_fd_sc_hd__decap_12
XFILLER_10_32 VSUBS sky130_fd_sc_hd__decap_6
XFILLER_35_51 VSUBS sky130_fd_sc_hd__decap_8
XFILLER_35_62 VSUBS sky130_fd_sc_hd__decap_6
XFILLER_33_175 VSUBS sky130_fd_sc_hd__decap_8
XPHY_126 VSUBS sky130_fd_sc_hd__tapvpwrvgnd_1
XPHY_115 VSUBS sky130_fd_sc_hd__tapvpwrvgnd_1
XPHY_104 VSUBS sky130_fd_sc_hd__tapvpwrvgnd_1
XPHY_137 VSUBS sky130_fd_sc_hd__tapvpwrvgnd_1
XPHY_148 VSUBS sky130_fd_sc_hd__tapvpwrvgnd_1
XPHY_159 VSUBS sky130_fd_sc_hd__tapvpwrvgnd_1
XFILLER_21_31 VSUBS sky130_fd_sc_hd__fill_1
XPHY_6 PHY_6/VSUBS sky130_fd_sc_hd__decap_3
X_695_ VSUBS sky130_fd_sc_hd__dfrtp_4
XFILLER_30_101 VSUBS sky130_fd_sc_hd__fill_1
XFILLER_30_145 VSUBS sky130_fd_sc_hd__decap_8
XFILLER_30_3 FILLER_30_3/VSUBS sky130_fd_sc_hd__decap_12
XFILLER_21_123 VSUBS sky130_fd_sc_hd__fill_1
XFILLER_29_223 VSUBS sky130_fd_sc_hd__decap_4
XFILLER_29_245 VSUBS sky130_fd_sc_hd__decap_8
X_480_ VSUBS sky130_fd_sc_hd__buf_1
XFILLER_12_145 FILLER_12_145/VSUBS sky130_fd_sc_hd__decap_8
X_678_ VSUBS sky130_fd_sc_hd__dfrtp_4
XFILLER_26_215 VSUBS sky130_fd_sc_hd__decap_6
XFILLER_5_119 VSUBS sky130_fd_sc_hd__decap_3
X_601_ VSUBS sky130_fd_sc_hd__inv_8
X_532_ VSUBS sky130_fd_sc_hd__buf_1
X_463_ VSUBS sky130_fd_sc_hd__xor2_4
X_394_ VSUBS sky130_fd_sc_hd__buf_1
XFILLER_4_141 VSUBS sky130_fd_sc_hd__decap_12
XFILLER_4_78 VSUBS sky130_fd_sc_hd__decap_12
XFILLER_4_67 VSUBS sky130_fd_sc_hd__decap_8
XFILLER_23_207 VSUBS sky130_fd_sc_hd__decap_8
XFILLER_14_218 VSUBS sky130_fd_sc_hd__decap_8
XFILLER_22_240 VSUBS sky130_fd_sc_hd__decap_12
XFILLER_8_3 FILLER_8_3/VSUBS sky130_fd_sc_hd__decap_12
XFILLER_1_199 VSUBS sky130_fd_sc_hd__decap_12
X_515_ VSUBS sky130_fd_sc_hd__inv_8
XFILLER_38_73 VSUBS sky130_fd_sc_hd__fill_2
XFILLER_38_84 VSUBS sky130_fd_sc_hd__decap_8
XFILLER_9_233 VSUBS sky130_fd_sc_hd__decap_8
X_446_ VSUBS sky130_fd_sc_hd__xor2_4
X_377_ VSUBS sky130_fd_sc_hd__buf_1
XFILLER_39_181 VSUBS sky130_fd_sc_hd__fill_2
XFILLER_39_192 VSUBS sky130_fd_sc_hd__fill_1
XFILLER_10_221 VSUBS sky130_fd_sc_hd__fill_1
X_429_ _429_/VSUBS sky130_fd_sc_hd__buf_1
XFILLER_28_107 VSUBS sky130_fd_sc_hd__decap_8
XFILLER_3_217 VSUBS sky130_fd_sc_hd__decap_12
XFILLER_10_99 VSUBS sky130_fd_sc_hd__decap_8
XFILLER_19_53 VSUBS sky130_fd_sc_hd__decap_8
XFILLER_42_121 VSUBS sky130_fd_sc_hd__decap_3
XFILLER_42_154 VSUBS sky130_fd_sc_hd__fill_1
XFILLER_42_187 VSUBS sky130_fd_sc_hd__decap_6
XFILLER_18_151 VSUBS sky130_fd_sc_hd__fill_2
XFILLER_18_195 VSUBS sky130_fd_sc_hd__decap_8
XFILLER_33_110 VSUBS sky130_fd_sc_hd__decap_12
XPHY_116 VSUBS sky130_fd_sc_hd__tapvpwrvgnd_1
XPHY_105 VSUBS sky130_fd_sc_hd__tapvpwrvgnd_1
XPHY_127 VSUBS sky130_fd_sc_hd__tapvpwrvgnd_1
XPHY_138 PHY_138/VSUBS sky130_fd_sc_hd__tapvpwrvgnd_1
XPHY_149 VSUBS sky130_fd_sc_hd__tapvpwrvgnd_1
XFILLER_21_76 VSUBS sky130_fd_sc_hd__decap_8
XFILLER_21_87 VSUBS sky130_fd_sc_hd__decap_8
XFILLER_21_98 VSUBS sky130_fd_sc_hd__decap_12
X_694_ VSUBS sky130_fd_sc_hd__dfrtp_4
XPHY_7 PHY_7/VSUBS sky130_fd_sc_hd__decap_3
XFILLER_23_3 FILLER_23_3/VSUBS sky130_fd_sc_hd__decap_12
XFILLER_16_32 FILLER_16_32/VSUBS sky130_fd_sc_hd__decap_4
XFILLER_8_128 FILLER_8_128/VSUBS sky130_fd_sc_hd__decap_8
X_677_ VSUBS sky130_fd_sc_hd__dfrtp_4
XFILLER_7_161 VSUBS sky130_fd_sc_hd__decap_4
X_531_ VSUBS sky130_fd_sc_hd__and2_4
XFILLER_27_53 VSUBS sky130_fd_sc_hd__decap_8
X_600_ VSUBS sky130_fd_sc_hd__xor2_4
X_462_ VSUBS sky130_fd_sc_hd__a2bb2o_4
X_393_ VSUBS sky130_fd_sc_hd__buf_1
XFILLER_40_252 VSUBS sky130_fd_sc_hd__fill_1
XFILLER_22_252 VSUBS sky130_fd_sc_hd__fill_1
XFILLER_1_123 VSUBS sky130_fd_sc_hd__decap_8
X_514_ _514_/VSUBS sky130_fd_sc_hd__inv_8
XFILLER_9_245 VSUBS sky130_fd_sc_hd__decap_8
X_445_ VSUBS sky130_fd_sc_hd__a2bb2o_4
X_376_ VSUBS sky130_fd_sc_hd__buf_1
XFILLER_6_215 VSUBS sky130_fd_sc_hd__decap_8
XFILLER_24_32 VSUBS sky130_fd_sc_hd__decap_6
XFILLER_24_54 VSUBS sky130_fd_sc_hd__fill_1
X_428_ VSUBS sky130_fd_sc_hd__buf_1
X_359_ VSUBS sky130_fd_sc_hd__buf_1
XFILLER_3_229 VSUBS sky130_fd_sc_hd__decap_12
XFILLER_19_65 VSUBS sky130_fd_sc_hd__decap_8
XFILLER_2_251 FILLER_2_251/VSUBS sky130_fd_sc_hd__fill_2
XPHY_128 VSUBS sky130_fd_sc_hd__tapvpwrvgnd_1
XPHY_117 VSUBS sky130_fd_sc_hd__tapvpwrvgnd_1
XPHY_106 VSUBS sky130_fd_sc_hd__tapvpwrvgnd_1
XFILLER_2_90 VSUBS sky130_fd_sc_hd__fill_2
XPHY_139 PHY_139/VSUBS sky130_fd_sc_hd__tapvpwrvgnd_1
XFILLER_24_177 VSUBS sky130_fd_sc_hd__decap_8
X_693_ VSUBS sky130_fd_sc_hd__dfrtp_4
XPHY_8 PHY_8/VSUBS sky130_fd_sc_hd__decap_3
XFILLER_15_166 FILLER_15_166/VSUBS sky130_fd_sc_hd__decap_8
XFILLER_15_177 FILLER_15_177/VSUBS sky130_fd_sc_hd__decap_6
XFILLER_30_125 VSUBS sky130_fd_sc_hd__decap_8
XFILLER_16_3 VSUBS sky130_fd_sc_hd__decap_12
XFILLER_38_203 VSUBS sky130_fd_sc_hd__decap_8
XFILLER_21_114 VSUBS sky130_fd_sc_hd__decap_8
XFILLER_29_236 VSUBS sky130_fd_sc_hd__decap_8
XFILLER_32_32 VSUBS sky130_fd_sc_hd__decap_12
X_676_ VSUBS sky130_fd_sc_hd__dfrtp_4
XFILLER_26_206 VSUBS sky130_fd_sc_hd__decap_8
X_530_ VSUBS sky130_fd_sc_hd__inv_8
X_461_ VSUBS sky130_fd_sc_hd__o22a_4
XFILLER_27_65 VSUBS sky130_fd_sc_hd__decap_12
XFILLER_27_98 VSUBS sky130_fd_sc_hd__decap_8
X_392_ VSUBS sky130_fd_sc_hd__buf_1
XFILLER_4_154 VSUBS sky130_fd_sc_hd__decap_6
X_659_ VSUBS sky130_fd_sc_hd__dfrtp_4
X_444_ VSUBS sky130_fd_sc_hd__o22a_4
X_513_ VSUBS sky130_fd_sc_hd__xor2_4
X_375_ VSUBS sky130_fd_sc_hd__buf_1
XFILLER_39_150 VSUBS sky130_fd_sc_hd__decap_8
XFILLER_39_161 VSUBS sky130_fd_sc_hd__decap_12
XFILLER_10_245 VSUBS sky130_fd_sc_hd__decap_8