*SPEF "IEEE 1481-1998"
*DESIGN "spm"
*DATE "Mon Nov 02 06:07:01 2020"
*VENDOR "AUC CSCE Department"
*PROGRAM "SPEF Extractor"
*VERSION "1.0"
*DESIGN_FLOW "PIN_CAP NONE"
*DIVIDER /
*DELIMITER :
*BUS_DELIMITER []
*T_UNIT 1.00000 NS
*C_UNIT 1.00000 PF
*R_UNIT 1.00000 OHM
*L_UNIT 1.00000 HENRY


*NAME_MAP
*0 clk
*1 p
*2 rst
*3 x[0]
*4 x[10]
*5 x[11]
*6 x[12]
*7 x[13]
*8 x[14]
*9 x[15]
*10 x[16]
*11 x[17]
*12 x[18]
*13 x[19]
*14 x[1]
*15 x[20]
*16 x[21]
*17 x[22]
*18 x[23]
*19 x[24]
*20 x[25]
*21 x[26]
*22 x[27]
*23 x[28]
*24 x[29]
*25 x[2]
*26 x[30]
*27 x[31]
*28 x[3]
*29 x[4]
*30 x[5]
*31 x[6]
*32 x[7]
*33 x[8]
*34 x[9]
*35 y
*36 _000_
*37 _001_
*38 _002_
*39 _003_
*40 _004_
*41 _005_
*42 _006_
*43 _007_
*44 _008_
*45 _009_
*46 _010_
*47 _011_
*48 _012_
*49 _013_
*50 _014_
*51 _015_
*52 _016_
*53 _017_
*54 _018_
*55 _019_
*56 _020_
*57 _021_
*58 _022_
*59 _023_
*60 _024_
*61 _025_
*62 _026_
*63 _027_
*64 _028_
*65 _029_
*66 _030_
*67 _031_
*68 _032_
*69 _033_
*70 _034_
*71 _035_
*72 _036_
*73 _037_
*74 _038_
*75 _039_
*76 _040_
*77 _041_
*78 _042_
*79 _043_
*80 _044_
*81 _045_
*82 _046_
*83 _047_
*84 _048_
*85 _049_
*86 _050_
*87 _051_
*88 _052_
*89 _053_
*90 _054_
*91 _055_
*92 _056_
*93 _057_
*94 _058_
*95 _059_
*96 _060_
*97 _061_
*98 _062_
*99 _063_
*100 _064_
*101 _065_
*102 _066_
*103 _067_
*104 _068_
*105 _069_
*106 _070_
*107 _071_
*108 _072_
*109 _073_
*110 _074_
*111 _075_
*112 _076_
*113 _077_
*114 _078_
*115 _079_
*116 _080_
*117 _081_
*118 _082_
*119 _083_
*120 _084_
*121 _085_
*122 _086_
*123 _087_
*124 _088_
*125 _089_
*126 _090_
*127 _091_
*128 _092_
*129 _093_
*130 _094_
*131 _095_
*132 _096_
*133 _097_
*134 _098_
*135 _099_
*136 _100_
*137 _101_
*138 _102_
*139 _103_
*140 _104_
*141 _105_
*142 _106_
*143 _107_
*144 _108_
*145 _109_
*146 _110_
*147 _111_
*148 _112_
*149 _113_
*150 _114_
*151 _115_
*152 _116_
*153 _117_
*154 _118_
*155 _119_
*156 _120_
*157 _121_
*158 _122_
*159 _123_
*160 _124_
*161 _125_
*162 _126_
*163 _127_
*164 _128_
*165 _129_
*166 _130_
*167 _131_
*168 _132_
*169 _133_
*170 _134_
*171 _135_
*172 _136_
*173 _137_
*174 _138_
*175 _139_
*176 _140_
*177 _141_
*178 _142_
*179 _143_
*180 _144_
*181 _145_
*182 _146_
*183 _147_
*184 _148_
*185 _149_
*186 _150_
*187 _151_
*188 _152_
*189 _153_
*190 _154_
*191 _155_
*192 _156_
*193 _157_
*194 _158_
*195 _159_
*196 _160_
*197 _161_
*198 _162_
*199 _163_
*200 _164_
*201 _165_
*202 _166_
*203 _167_
*204 _168_
*205 _169_
*206 _170_
*207 _171_
*208 _172_
*209 _173_
*210 _174_
*211 _175_
*212 _176_
*213 _177_
*214 _178_
*215 _179_
*216 _180_
*217 _181_
*218 _182_
*219 _183_
*220 _184_
*221 _185_
*222 _186_
*223 _187_
*224 _188_
*225 _189_
*226 _190_
*227 _191_
*228 _192_
*229 _193_
*230 _194_
*231 _195_
*232 _196_
*233 _197_
*234 _198_
*235 _199_
*236 _200_
*237 _201_
*238 _202_
*239 _203_
*240 _204_
*241 _205_
*242 _206_
*243 _207_
*244 _208_
*245 _209_
*246 _210_
*247 _211_
*248 _212_
*249 _213_
*250 _214_
*251 _215_
*252 _216_
*253 _217_
*254 _218_
*255 _219_
*256 _220_
*257 _221_
*258 _222_
*259 _223_
*260 _224_
*261 _225_
*262 _226_
*263 _227_
*264 _228_
*265 _229_
*266 _230_
*267 _231_
*268 _232_
*269 _233_
*270 _234_
*271 _235_
*272 _236_
*273 _237_
*274 _238_
*275 _239_
*276 _240_
*277 _241_
*278 _242_
*279 _243_
*280 _244_
*281 _245_
*282 _246_
*283 _247_
*284 _248_
*285 _249_
*286 _250_
*287 _251_
*288 _252_
*289 _253_
*290 _254_
*291 _255_
*292 _256_
*293 _257_
*294 _258_
*295 _259_
*296 _260_
*297 _261_
*298 _262_
*299 _263_
*300 _264_
*301 _265_
*302 _266_
*303 _267_
*304 _268_
*305 _269_
*306 _270_
*307 _271_
*308 _272_
*309 _273_
*310 _274_
*311 _275_
*312 _276_
*313 _277_
*314 _278_
*315 _279_
*316 _280_
*317 _281_
*318 _282_
*319 _283_
*320 _284_
*321 _285_
*322 _286_
*323 _287_
*324 _288_
*325 _289_
*326 _290_
*327 _291_
*328 _292_
*329 _293_
*330 _294_
*331 _295_
*332 _296_
*333 _297_
*334 _298_
*335 _299_
*336 _300_
*337 _301_
*338 _302_
*339 _303_
*340 _304_
*341 _305_
*342 _306_
*343 _307_
*344 _308_
*345 _309_
*346 _310_
*347 _311_
*348 _312_
*349 _313_
*350 _314_
*351 _315_
*352 _316_
*353 _317_
*354 _318_
*355 _319_
*356 _320_
*357 _321_
*358 _322_
*359 _323_
*360 _324_
*361 _325_
*362 _326_
*363 _327_
*364 _328_
*365 _329_
*366 _330_
*367 _331_
*368 _332_
*369 _333_
*370 _334_
*371 csa0.hsum2
*372 csa0.sc
*373 csa0.y
*374 pp\[10\]
*375 pp\[11\]
*376 pp\[12\]
*377 pp\[13\]
*378 pp\[14\]
*379 pp\[15\]
*380 pp\[16\]
*381 pp\[17\]
*382 pp\[18\]
*383 pp\[19\]
*384 pp\[20\]
*385 pp\[21\]
*386 pp\[22\]
*387 pp\[23\]
*388 pp\[24\]
*389 pp\[25\]
*390 pp\[26\]
*391 pp\[27\]
*392 pp\[28\]
*393 pp\[29\]
*394 pp\[2\]
*395 pp\[30\]
*396 pp\[3\]
*397 pp\[4\]
*398 pp\[5\]
*399 pp\[6\]
*400 pp\[7\]
*401 pp\[8\]
*402 pp\[9\]
*403 tcmp.s
*404 tcmp.z
*405 clknet_0_clk
*406 clknet_2_0_0_clk
*407 clknet_2_1_0_clk
*408 clknet_2_2_0_clk
*409 clknet_2_3_0_clk
*410 clknet_3_0_0_clk
*411 clknet_3_1_0_clk
*412 clknet_3_2_0_clk
*413 clknet_3_3_0_clk
*414 clknet_3_4_0_clk
*415 clknet_3_5_0_clk
*416 clknet_3_6_0_clk
*417 clknet_3_7_0_clk

*D_NET *0 0.00042280417999999997
*CONN
*P clk I
*I clkbuf_0_clk:A I
*CAP
0 clkbuf_0_clk:A 1.70428e-05
1 *0:2 6.005096e-05
2 *0:3 2.94648e-06
3 *0:4 0.00018907544
4 *0:6 3.04045e-05
5 *0:8 0.000123284
6 *0:1 0
7 *0:5 0
*RES
0 clkbuf_0_clk:A *0:1 2.0535714285714284
1 *0:2 *0:3 7.3928571428571415
2 *0:3 *0:4 0.30357142857142855
3 *0:4 *0:5 23.41071428571428
4 *0:6 *0:7 11.080357142857142
5 *0:8 *0:9 44.92857142857142
6 clkbuf_0_clk:A clkbuf_0_clk:A 0
7 *0:1 *0:8 0
8 *0:2 *0:9 0
9 *0:5 *0:6 0
*END

*D_NET *1 0.0002596209
*CONN
*P p O
*I _642_:Q O
*CAP
8 *1:1 3.20705e-05
9 *1:3 0.0002275504
10 *1:4 0
11 _642_:Q 0
*RES
10 *1:1 *1:2 11.687499999999998
11 *1:3 _642_:Q 0.6071428571428571
12 *1:3 *1:4 27.51785714285714
13 *1:4 *1:2 0
14 _642_:Q _642_:Q 0
*END

*D_NET *2 9.411898000000001e-05
*CONN
*P rst I
*I _360_:A I
*CAP
12 *2:1 1.373448e-05
13 *2:2 8.03845e-05
14 _360_:A 0
*RES
15 *2:1 _360_:A 1.6428571428571428
16 *2:2 *2:3 29.294642857142858
17 *2:1 *2:3 0
18 _360_:A _360_:A 0
*END

*D_NET *3 0.00016409518
*CONN
*P x[0] I
*I _442_:B I
*CAP
15 *3:1 3.4569499999999995e-05
16 *3:3 0.00012952568
17 _442_:B 0
*RES
19 *3:1 *3:2 12.598214285714285
20 *3:3 _442_:B 16.017857142857142
21 *3:3 *3:2 0
22 _442_:B _442_:B 0
*END

*D_NET *4 0.00030663206
*CONN
*P x[10] I
*I _517_:B I
*CAP
18 *4:1 2.9155e-06
19 *4:3 0.00015930056
20 *4:5 2.0825e-05
21 *4:7 0.000123591
22 *4:2 0
23 *4:4 0
24 _517_:B 0
*RES
23 *4:1 *4:2 1.0624999999999998
24 *4:3 *4:4 19.71428571428571
25 *4:5 *4:6 7.5892857142857135
26 *4:7 *4:8 2.5583666666666667
27 *4:2 *4:8 0
28 *4:3 *4:1 0
29 *4:4 *4:6 0
30 _517_:B _517_:B 0
31 _517_:B *4:5 0
*END

*D_NET *5 0.00023558866000000003
*CONN
*P x[11] I
*I _524_:B I
*CAP
25 *5:1 2.04085e-05
26 *5:3 0.00021518016000000002
27 *5:4 0
28 _524_:B 0
*RES
32 *5:1 *5:2 7.437499999999999
33 *5:3 _524_:B 0.30357142857142855
34 *5:3 *5:4 26.285714285714285
35 *5:4 *5:2 0
36 _524_:B _524_:B 0
*END

*D_NET *6 0.00033510418
*CONN
*P x[12] I
*I _531_:B I
*CAP
29 *6:1 0.00016886368
30 *6:3 1.2495e-06
31 *6:5 0.00016499100000000002
32 _531_:B 0
33 *6:2 0
*RES
37 *6:1 _531_:B 0.30357142857142855
38 *6:1 *6:2 20.535714285714285
39 *6:3 *6:4 0.45535714285714285
40 *6:5 *6:6 3.423166666666667
41 _531_:B _531_:B 0
42 *6:2 *6:4 0
43 *6:3 *6:5 0
*END

*D_NET *7 3.4190340000000006e-05
*CONN
*P x[13] I
*I _538_:B I
*CAP
34 _538_:B 7.117840000000001e-06
35 *7:2 2.7072500000000002e-05
36 *7:1 0
*RES
44 _538_:B *7:1 0.8214285714285714
45 *7:2 *7:3 9.866071428571429
46 *7:1 *7:3 0
47 _538_:B _538_:B 0
*END

*D_NET *8 0.0002465343
*CONN
*P x[14] I
*I _545_:B I
*CAP
37 *8:1 1.70428e-05
38 *8:3 4.4565500000000006e-05
39 *8:5 0.000184926
40 *8:2 0
41 _545_:B 0
*RES
48 *8:1 *8:2 2.0535714285714284
49 *8:3 *8:4 16.241071428571427
50 *8:5 *8:6 67.39285714285714
51 *8:1 *8:6 0
52 *8:2 *8:3 0
53 _545_:B _545_:B 0
54 _545_:B *8:5 0
*END

*D_NET *9 0.0001761121
*CONN
*P x[15] I
*I _553_:B I
*CAP
42 *9:1 1.70428e-05
43 *9:3 3.79015e-05
44 *9:5 1.70428e-05
45 *9:6 0.000104125
46 *9:2 0
47 _553_:B 0
*RES
55 *9:1 *9:2 2.0535714285714284
56 *9:3 *9:4 13.8125
57 *9:5 _553_:B 2.0535714285714284
58 *9:6 *9:7 37.94642857142857
59 *9:1 *9:3 0
60 *9:2 *9:7 0
61 *9:5 *9:6 0
62 _553_:B _553_:B 0
*END

*D_NET *10 0.00025201842
*CONN
*P x[16] I
*I _560_:B I
*CAP
48 _560_:B 5.39176e-06
49 *10:1 9.313416000000002e-05
50 *10:3 5.635e-06
51 *10:4 3.1654e-05
52 *10:6 0.0001162035
53 *10:2 0
*RES
63 _560_:B *10:1 0.6071428571428571
64 *10:1 *10:2 11.5
65 *10:3 *10:4 2.0535714285714284
66 *10:4 *10:5 11.535714285714285
67 *10:6 *10:3 42.348214285714285
68 _560_:B _560_:B 0
69 *10:2 *10:6 0
*END

*D_NET *11 0.00018390934
*CONN
*P x[17] I
*I _567_:B I
*CAP
54 *11:1 1.04125e-05
55 *11:3 4.3509360000000005e-05
56 _567_:B 2.94648e-06
57 *11:5 0.000127041
58 *11:2 0
*RES
70 *11:1 *11:2 3.7946428571428568
71 *11:3 *11:4 5.339285714285714
72 _567_:B *11:4 0.30357142857142855
73 *11:5 *11:6 2.6304333333333334
74 *11:2 *11:6 0
75 *11:3 *11:1 0
76 _567_:B _567_:B 0
*END

*D_NET *12 0.0001075905
*CONN
*P x[18] I
*I _574_:B I
*CAP
59 *12:1 1.2495e-06
60 *12:3 0.000106341
61 _574_:B 0
62 *12:2 0
*RES
77 *12:1 *12:2 0.45535714285714285
78 *12:3 *12:4 2.198033333333333
79 _574_:B _574_:B 0
80 _574_:B *12:1 0
81 *12:2 *12:3 0
*END

*D_NET *13 0.00011475453999999999
*CONN
*P x[19] I
*I _581_:B I
*CAP
63 _581_:B 4.020104e-05
64 *13:2 7.45535e-05
65 *13:1 0
*RES
82 _581_:B *13:1 4.928571428571428
83 *13:2 *13:3 27.169642857142854
84 _581_:B _581_:B 0
85 *13:1 *13:3 0
*END

*D_NET *14 0.00010045449999999999
*CONN
*P x[1] I
*I _452_:B I
*CAP
66 *14:1 7.9135e-06
67 *14:3 9.2541e-05
68 *14:2 0
69 _452_:B 0
*RES
86 *14:1 *14:2 2.883928571428571
87 *14:3 *14:4 1.9097666666666666
88 *14:2 *14:4 0
89 _452_:B _452_:B 0
90 _452_:B *14:1 0
*END

*D_NET *15 0.00044673426
*CONN
*P x[20] I
*I _589_:B I
*CAP
70 *15:1 1.4993999999999999e-05
71 *15:2 1.127e-06
72 _589_:B 2.94648e-06
73 *15:5 2.254e-06
74 *15:6 3.6235499999999996e-05
75 *15:8 7.117840000000001e-06
76 *15:9 2.94648e-06
77 *15:10 0.0001493756
78 *15:11 5.39176e-06
79 *15:3 7.497e-05
80 *15:12 0.0001493756
*RES
91 *15:1 *15:2 5.4642857142857135
92 *15:2 *15:3 0.4107142857142857
93 _589_:B *15:4 0.30357142857142855
94 *15:5 *15:6 0.8214285714285714
95 *15:6 *15:7 13.20535714285714
96 *15:8 *15:9 0.8214285714285714
97 *15:9 *15:10 0.30357142857142855
98 *15:10 *15:11 18.482142857142854
99 *15:11 *15:12 0.6071428571428571
100 *15:3 *15:5 27.32142857142857
101 *15:12 *15:4 18.482142857142854
102 _589_:B _589_:B 0
103 *15:8 *15:7 0
*END

*D_NET *16 0.0001375715
*CONN
*P x[21] I
*I _596_:B I
*CAP
81 *16:1 7.0805e-06
82 *16:3 0.000130491
83 _596_:B 0
84 *16:2 0
*RES
104 *16:1 *16:2 2.580357142857143
105 *16:3 *16:4 2.7025
106 _596_:B _596_:B 0
107 _596_:B *16:1 0
108 *16:2 *16:3 0
*END

*D_NET *17 0.0005595849
*CONN
*P x[22] I
*I _603_:B I
*CAP
85 *17:1 6.664e-06
86 *17:3 3.0276079999999998e-05
87 *17:4 2.94648e-06
88 *17:5 1.2495e-06
89 *17:7 0.0002817084
90 *17:9 3.332e-06
91 *17:11 0.000127041
92 *17:13 0.00010636744000000001
93 *17:14 0
94 _603_:B 0
95 *17:8 0
*RES
109 *17:1 *17:2 2.4285714285714284
110 *17:3 *17:4 3.6964285714285707
111 *17:4 _603_:B 0.30357142857142855
112 *17:5 *17:6 0.45535714285714285
113 *17:7 *17:8 34.910714285714285
114 *17:9 *17:10 1.2142857142857142
115 *17:11 *17:12 2.6304333333333334
116 *17:13 *17:14 13.142857142857142
117 *17:14 *17:1 0
118 *17:3 *17:2 0
119 _603_:B _603_:B 0
120 *17:5 *17:12 0
121 *17:7 *17:6 0
122 *17:8 *17:9 0
123 *17:13 *17:10 0
*END

*D_NET *18 7.979221999999999e-05
*CONN
*P x[23] I
*I _610_:B I
*CAP
96 *18:1 4.28995e-05
97 _610_:B 3.6892719999999995e-05
98 *18:3 0
*RES
124 *18:1 *18:2 15.633928571428571
125 _610_:B *18:3 4.517857142857142
126 *18:3 *18:1 0
127 _610_:B _610_:B 0
*END

*D_NET *19 0.00029073906
*CONN
*P x[24] I
*I _617_:B I
*CAP
99 *19:1 3.79015e-05
100 *19:3 1.0829e-05
101 *19:5 0.00024200856
102 *19:6 0
103 _617_:B 0
*RES
128 *19:1 *19:2 13.8125
129 *19:3 *19:4 3.946428571428571
130 *19:5 *19:6 29.982142857142854
131 *19:5 *19:1 0
132 *19:6 *19:4 0
133 _617_:B _617_:B 0
134 _617_:B *19:3 0
*END

*D_NET *20 0.00026384546
*CONN
*P x[25] I
*I _625_:B I
*CAP
104 _625_:B 2.94648e-06
105 *20:1 9.644248e-05
106 *20:3 2.9155e-06
107 *20:5 0.00016154100000000002
108 *20:2 0
*RES
135 _625_:B *20:1 0.30357142857142855
136 *20:1 *20:2 11.910714285714285
137 *20:3 *20:4 1.0624999999999998
138 *20:5 *20:6 3.3511
139 _625_:B _625_:B 0
140 *20:2 *20:4 0
141 *20:3 *20:5 0
*END

*D_NET *21 0.00023718898
*CONN
*P x[26] I
*I _632_:B I
*CAP
109 *21:1 1.666e-06
110 *21:2 1.127e-06
111 *21:4 3.653088e-05
112 _632_:B 6.66676e-05
113 *21:3 0.0001311975
114 *21:5 0
*RES
142 *21:1 *21:2 0.6071428571428571
143 *21:2 *21:3 0.4107142857142857
144 *21:4 *21:5 4.107142857142857
145 *21:4 *21:6 0.30357142857142855
146 _632_:B *21:6 8.214285714285714
147 *21:3 *21:7 47.81249999999999
148 *21:5 *21:7 0
149 _632_:B _632_:B 0
*END

*D_NET *22 0.0005856488999999999
*CONN
*P x[27] I
*I _639_:B I
*CAP
115 _639_:B 7.83704e-06
116 *22:2 6.62235e-05
117 *22:4 0.00010967576000000001
118 *22:5 2.94648e-06
119 *22:7 0.000130491
120 *22:6 0.00026847511999999996
121 *22:3 0
*RES
150 _639_:B *22:1 0.9107142857142857
151 *22:2 *22:3 24.13392857142857
152 *22:4 *22:5 13.553571428571427
153 *22:5 *22:6 0.30357142857142855
154 *22:7 *22:8 2.7025
155 *22:6 *22:1 33.26785714285714
156 _639_:B _639_:B 0
157 *22:3 *22:8 0
158 *22:4 *22:2 0
*END

*D_NET *23 0.00030405802
*CONN
*P x[28] I
*I _340_:B I
*CAP
122 _340_:B 5.6742640000000004e-05
123 *23:1 5.39176e-06
124 *23:2 2.035112e-05
125 *23:4 4.62315e-05
126 *23:6 0.00017534099999999997
127 *23:3 0
128 *23:5 0
*RES
159 _340_:B *23:1 6.982142857142857
160 *23:1 *23:2 0.6071428571428571
161 *23:2 *23:3 2.464285714285714
162 *23:4 *23:5 16.848214285714285
163 *23:6 *23:7 3.6393666666666666
164 _340_:B _340_:B 0
165 *23:3 *23:4 0
166 *23:5 *23:6 0
*END

*D_NET *24 0.0005354409
*CONN
*P x[29] I
*I _347_:B I
*CAP
129 *24:1 3.1654e-05
130 *24:3 1.2911499999999998e-05
131 *24:5 0.00011960072
132 *24:6 5.39176e-06
133 *24:8 0.000130491
134 *24:7 0.00023539192
135 *24:10 0
136 _347_:B 0
*RES
167 *24:1 *24:2 11.535714285714285
168 *24:3 *24:4 4.705357142857142
169 *24:5 *24:6 14.785714285714283
170 *24:6 *24:7 0.6071428571428571
171 *24:8 *24:9 2.7025
172 *24:7 *24:10 29.16071428571428
173 *24:10 *24:1 0
174 _347_:B _347_:B 0
175 _347_:B *24:2 0
176 *24:3 *24:9 0
177 *24:5 *24:4 0
*END

*D_NET *25 7.389018e-05
*CONN
*P x[2] I
*I _459_:B I
*CAP
137 _459_:B 4.681768e-05
138 *25:2 2.7072500000000002e-05
139 *25:1 0
*RES
178 _459_:B *25:1 5.75
179 *25:2 *25:3 9.866071428571429
180 *25:1 *25:3 0
181 _459_:B _459_:B 0
*END

*D_NET *26 0.0004589119800000001
*CONN
*P x[30] I
*I _354_:B I
*CAP
140 *26:1 0.00029040848000000006
141 *26:3 1.04125e-05
142 *26:5 0.000158091
143 _354_:B 0
144 *26:2 0
*RES
182 *26:1 _354_:B 0.6071428571428571
183 *26:1 *26:2 35.32142857142857
184 *26:3 *26:4 3.7946428571428568
185 *26:5 *26:6 3.2790333333333335
186 _354_:B _354_:B 0
187 *26:2 *26:4 0
188 *26:3 *26:5 0
*END

*D_NET *27 0.00044963098000000006
*CONN
*P x[31] I
*I _447_:B I
*CAP
145 _447_:B 5.39176e-06
146 *27:1 0.0002850167200000001
147 *27:3 4.5815e-06
148 *27:5 0.000154641
149 *27:2 0
*RES
189 _447_:B *27:1 0.6071428571428571
190 *27:1 *27:2 35.32142857142857
191 *27:3 *27:4 1.669642857142857
192 *27:5 *27:6 3.2069666666666667
193 _447_:B _447_:B 0
194 *27:2 *27:4 0
195 *27:3 *27:5 0
*END

*D_NET *28 0.00014555186
*CONN
*P x[3] I
*I _466_:B I
*CAP
150 *28:1 4.3509360000000005e-05
151 *28:2 0.0001020425
152 _466_:B 0
*RES
196 *28:1 _466_:B 5.339285714285714
197 *28:2 *28:3 37.18749999999999
198 *28:1 *28:2 0
199 _466_:B _466_:B 0
*END

*D_NET *29 0.00033828202
*CONN
*P x[4] I
*I _473_:B I
*CAP
153 *29:1 0.00016800063999999998
154 *29:4 9.038049999999999e-05
155 _473_:B 7.990088e-05
156 *29:3 0
*RES
200 *29:1 *29:2 0.6071428571428571
201 *29:1 *29:3 20.124999999999996
202 *29:4 *29:5 32.9375
203 _473_:B *29:2 9.857142857142856
204 *29:3 *29:4 0
205 _473_:B _473_:B 0
*END

*D_NET *30 0.00031847413999999994
*CONN
*P x[5] I
*I _481_:B I
*CAP
157 *30:1 1.127e-06
158 *30:3 2.1658e-05
159 *30:4 1.373448e-05
160 *30:5 1.70428e-05
161 *30:7 8.7465e-05
162 *30:9 0.00012621736
163 *30:11 3.4152999999999996e-05
164 *30:2 1.7076499999999998e-05
165 _481_:B 0
166 *30:6 0
167 *30:10 0
*RES
206 *30:1 *30:2 0.4107142857142857
207 *30:3 *30:1 7.892857142857142
208 *30:4 _481_:B 1.6428571428571428
209 *30:5 *30:6 2.0535714285714284
210 *30:7 *30:8 31.875
211 *30:9 *30:10 15.607142857142856
212 *30:11 *30:12 12.44642857142857
213 *30:2 *30:13 6.223214285714285
214 *30:4 *30:12 0
215 _481_:B _481_:B 0
216 *30:5 *30:11 0
217 *30:6 *30:8 0
218 *30:9 *30:7 0
219 *30:10 *30:13 0
*END

*D_NET *31 8.544925999999999e-05
*CONN
*P x[6] I
*I _488_:B I
*CAP
168 _488_:B 2.6967760000000004e-05
169 *31:2 3.29035e-05
170 *31:4 2.5577999999999998e-05
171 *31:1 0
*RES
220 _488_:B *31:1 3.2857142857142856
221 *31:2 *31:3 11.991071428571427
222 *31:4 *31:3 0.8214285714285714
223 *31:4 *31:5 8.499999999999998
224 _488_:B _488_:B 0
225 *31:1 *31:2 0
*END

*D_NET *32 0.00024292390000000004
*CONN
*P x[7] I
*I _495_:B I
*CAP
172 *32:1 0.000102891
173 *32:3 2.0825e-06
174 *32:5 0.00011629240000000002
175 *32:7 2.1658e-05
176 *32:4 0
177 *32:6 0
178 _495_:B 0
*RES
226 *32:1 *32:2 2.125966666666667
227 *32:3 *32:4 0.7589285714285713
228 *32:5 *32:6 14.375
229 *32:7 *32:8 7.892857142857142
230 *32:4 *32:2 0
231 *32:5 *32:3 0
232 *32:6 *32:8 0
233 _495_:B _495_:B 0
234 _495_:B *32:7 0
*END

*D_NET *33 6.867242000000001e-05
*CONN
*P x[8] I
*I _502_:B I
*CAP
179 *33:1 4.206650000000001e-05
180 _502_:B 2.94648e-06
181 *33:4 2.3659440000000002e-05
*RES
235 *33:1 *33:2 15.330357142857142
236 _502_:B *33:3 0.30357142857142855
237 *33:4 *33:3 2.875
238 *33:4 *33:1 0
239 _502_:B _502_:B 0
*END

*D_NET *34 0.00041555117999999994
*CONN
*P x[9] I
*I _509_:B I
*CAP
182 *34:1 3.37365e-05
183 *34:3 4.165e-06
184 *34:5 0.00037764967999999997
185 *34:6 0
186 _509_:B 0
*RES
240 *34:1 *34:2 12.294642857142856
241 *34:3 *34:4 1.5178571428571426
242 *34:5 *34:6 46.82142857142856
243 *34:6 *34:1 0
244 _509_:B _509_:B 0
245 _509_:B *34:4 0
246 *34:5 *34:3 0
*END

*D_NET *35 0.00077490054
*CONN
*P y I
*I _624_:A I
*I _588_:A I
*I _552_:A I
*I _440_:A I
*CAP
187 *35:1 2.254e-06
188 *35:3 2.1658e-05
189 *35:4 5.39176e-06
190 _552_:A 2.3659440000000002e-05
191 *35:6 5.164599999999999e-05
192 *35:8 2.6605920000000004e-05
193 *35:11 7.328424e-05
194 *35:12 3.332e-06
195 *35:14 3.6892719999999995e-05
196 *35:16 5.39176e-06
197 _588_:A 3.6892719999999995e-05
198 _440_:A 5.39176e-06
199 *35:18 0.00010305912000000001
200 *35:19 1.9992e-05
201 *35:21 2.9914240000000002e-05
202 *35:2 3.79015e-05
203 *35:24 0.00029163336
204 _624_:A 0
205 *35:5 0
206 *35:9 0
207 *35:15 0
208 *35:22 0
209 *35:26 0
*RES
247 *35:1 *35:2 0.8214285714285714
248 *35:3 *35:1 7.892857142857142
249 *35:4 _624_:A 0.6071428571428571
250 _552_:A *35:5 2.875
251 *35:6 *35:7 18.82142857142857
252 *35:8 *35:9 2.875
253 *35:8 *35:10 0.30357142857142855
254 *35:11 *35:10 9.035714285714285
255 *35:12 *35:13 1.2142857142857142
256 *35:14 *35:15 4.517857142857142
257 *35:16 *35:14 0.6071428571428571
258 _588_:A *35:16 4.517857142857142
259 _440_:A *35:17 0.6071428571428571
260 *35:18 *35:17 12.732142857142856
261 *35:19 *35:20 7.285714285714286
262 *35:21 *35:22 3.2857142857142856
263 *35:21 *35:5 0.30357142857142855
264 *35:2 *35:23 13.8125
265 *35:24 *35:4 36.14285714285714
266 _624_:A _624_:A 0
267 _552_:A _552_:A 0
268 *35:5 *35:6 0
269 *35:9 *35:7 0
270 *35:11 *35:13 0
271 *35:15 *35:12 0
272 _588_:A _588_:A 0
273 _440_:A _440_:A 0
274 *35:18 *35:25 0
275 *35:24 *35:19 0
276 *35:22 *35:20 0
277 *35:26 *35:23 0
*END

*D_NET *36 3.448844e-05
*CONN
*I _663_:D I
*I _520_:X O
*CAP
210 *36:1 1.0829e-05
211 _663_:D 2.3659440000000002e-05
212 _520_:X 0
213 *36:3 0
*RES
278 *36:1 *36:2 3.946428571428571
279 _663_:D *36:3 2.875
280 _520_:X _520_:X 0
281 _520_:X *36:1 0
282 *36:3 *36:2 0
283 _663_:D _663_:D 0
*END

*D_NET *37 2.0825e-05
*CONN
*I _664_:D I
*I _521_:X O
*CAP
214 *37:1 2.0825e-05
215 _664_:D 0
216 _521_:X 0
*RES
284 *37:1 *37:2 7.5892857142857135
285 _664_:D _664_:D 0
286 _664_:D *37:2 0
287 _521_:X *37:1 0
*END

*D_NET *38 3.0299760000000005e-05
*CONN
*I _665_:D I
*I _527_:X O
*CAP
217 *38:1 3.332e-06
218 *38:3 2.6967760000000004e-05
219 _665_:D 0
220 _527_:X 0
*RES
288 *38:1 *38:2 1.2142857142857142
289 *38:3 _527_:X 3.2857142857142856
290 _665_:D _665_:D 0
291 _665_:D *38:1 0
292 *38:3 *38:2 0
293 _527_:X _527_:X 0
*END

*D_NET *39 0.00012376572000000001
*CONN
*I _666_:D I
*I _528_:X O
*CAP
221 *39:1 4.165e-06
222 *39:3 0.00011960072
223 _666_:D 0
*RES
294 *39:1 *39:2 1.5178571428571426
295 *39:3 _528_:X 14.785714285714283
296 _666_:D _666_:D 0
297 _666_:D *39:2 0
298 *39:3 *39:1 0
*END

*D_NET *40 6.05658e-05
*CONN
*I _667_:D I
*I _534_:X O
*CAP
224 *40:1 6.664e-06
225 _667_:D 5.39018e-05
226 _534_:X 0
227 *40:3 0
*RES
299 *40:1 *40:2 2.4285714285714284
300 _667_:D *40:3 6.629464285714285
301 _534_:X _534_:X 0
302 _534_:X *40:1 0
303 *40:3 *40:2 0
304 _667_:D _667_:D 0
*END

*D_NET *41 1.789948e-05
*CONN
*I _668_:D I
*I _535_:X O
*CAP
228 *41:1 4.165e-06
229 *41:3 1.373448e-05
230 _668_:D 0
231 *41:4 0
*RES
305 *41:1 *41:2 1.5178571428571426
306 *41:3 *41:4 1.6428571428571428
307 _668_:D _668_:D 0
308 _668_:D *41:2 0
309 *41:4 *41:1 0
310 *41:3 *41:3 0
*END

*D_NET *42 7.974520000000001e-06
*CONN
*I _669_:D I
*I _541_:X O
*CAP
232 _541_:X 3.8095200000000007e-06
233 *42:2 4.165e-06
234 *42:1 0
235 _669_:D 0
*RES
311 _541_:X *42:1 0.4107142857142857
312 *42:2 *42:3 1.5178571428571426
313 _541_:X _541_:X 0
314 *42:1 *42:2 0
315 _669_:D _669_:D 0
316 _669_:D *42:3 0
*END

*D_NET *43 3.7749399999999995e-05
*CONN
*I _670_:D I
*I _542_:X O
*CAP
236 *43:1 4.165e-06
237 *43:3 3.3584399999999996e-05
238 _670_:D 0
239 *43:4 0
*RES
317 *43:1 *43:2 1.5178571428571426
318 *43:3 *43:4 4.107142857142857
319 _670_:D _670_:D 0
320 _670_:D *43:2 0
321 *43:4 *43:1 0
322 *43:3 *43:3 0
*END

*D_NET *44 3.1180120000000005e-05
*CONN
*I _671_:D I
*I _548_:X O
*CAP
240 _671_:D 2.035112e-05
241 *44:2 1.0829e-05
242 *44:1 0
243 _548_:X 0
*RES
323 _671_:D *44:1 2.464285714285714
324 *44:2 *44:3 3.946428571428571
325 _671_:D _671_:D 0
326 *44:1 *44:2 0
327 _548_:X _548_:X 0
328 _548_:X *44:3 0
*END

*D_NET *45 2.879952e-05
*CONN
*I _672_:D I
*I _549_:X O
*CAP
244 *45:1 2.499e-05
245 *45:3 3.8095200000000007e-06
246 _672_:D 0
*RES
329 *45:1 *45:2 9.107142857142856
330 *45:3 _549_:X 0.4107142857142857
331 _672_:D _672_:D 0
332 _672_:D *45:1 0
333 *45:3 *45:2 0
*END

*D_NET *46 4.998e-06
*CONN
*I _673_:D I
*I _556_:X O
*CAP
247 *46:1 4.998e-06
248 _673_:D 0
249 _556_:X 0
*RES
334 *46:1 *46:2 1.8214285714285714
335 _673_:D _673_:D 0
336 _673_:D *46:1 0
337 _556_:X _556_:X 0
338 _556_:X *46:2 0
*END

*D_NET *47 3.046552e-05
*CONN
*I _674_:D I
*I _557_:X O
*CAP
250 _557_:X 3.8095200000000007e-06
251 *47:2 2.6656e-05
252 *47:1 0
253 _674_:D 0
*RES
339 _557_:X *47:1 0.4107142857142857
340 *47:2 *47:3 9.714285714285714
341 *47:1 *47:3 0
342 _674_:D _674_:D 0
343 _674_:D *47:2 0
*END

*D_NET *48 1.789948e-05
*CONN
*I _675_:D I
*I _563_:X O
*CAP
254 _563_:X 1.373448e-05
255 *48:2 4.165e-06
256 *48:1 0
257 _675_:D 0
*RES
344 _563_:X *48:1 1.6428571428571428
345 *48:2 *48:3 1.5178571428571426
346 _563_:X _563_:X 0
347 *48:1 *48:2 0
348 _675_:D _675_:D 0
349 _675_:D *48:3 0
*END

*D_NET *49 9.401452000000002e-05
*CONN
*I _676_:D I
*I _564_:X O
*CAP
258 _676_:D 8.651752000000002e-05
259 *49:2 7.4969999999999995e-06
260 *49:1 0
261 _564_:X 0
*RES
350 _676_:D *49:1 10.678571428571429
351 *49:2 *49:3 2.7321428571428568
352 _676_:D _676_:D 0
353 *49:1 *49:2 0
354 _564_:X *49:3 0
*END

*D_NET *50 8.807520000000001e-06
*CONN
*I _677_:D I
*I _570_:X O
*CAP
262 *50:1 4.998e-06
263 _677_:D 3.8095200000000007e-06
264 _570_:X 0
265 *50:3 0
*RES
355 *50:1 *50:2 1.8214285714285714
356 _677_:D *50:3 0.4107142857142857
357 _570_:X _570_:X 0
358 _570_:X *50:1 0
359 *50:3 *50:2 0
360 _677_:D _677_:D 0
*END

*D_NET *51 2.4610839999999998e-05
*CONN
*I _678_:D I
*I _571_:X O
*CAP
266 *51:1 1.7492999999999997e-05
267 *51:3 7.117840000000001e-06
268 _678_:D 0
269 *51:4 0
*RES
361 *51:1 *51:2 6.374999999999999
362 *51:3 *51:4 0.8214285714285714
363 _678_:D _678_:D 0
364 _678_:D *51:2 0
365 *51:4 *51:1 0
366 *51:3 *51:3 0
*END

*D_NET *52 6.271572e-05
*CONN
*I _679_:D I
*I _577_:X O
*CAP
270 *52:1 2.5822999999999997e-05
271 _679_:D 3.6892719999999995e-05
272 _577_:X 0
273 *52:3 0
*RES
367 *52:1 *52:2 9.410714285714285
368 _679_:D *52:3 4.517857142857142
369 _577_:X _577_:X 0
370 _577_:X *52:1 0
371 *52:3 *52:2 0
372 _679_:D _679_:D 0
*END

*D_NET *53 2.6656e-05
*CONN
*I _680_:D I
*I _578_:X O
*CAP
274 *53:1 2.6656e-05
275 _680_:D 0
276 _578_:X 0
*RES
373 *53:1 *53:2 9.714285714285714
374 _680_:D _680_:D 0
375 _680_:D *53:2 0
376 _578_:X *53:1 0
*END

*D_NET *54 6.757164000000001e-05
*CONN
*I _681_:D I
*I _584_:X O
*CAP
277 *54:1 1.0829e-05
278 *54:3 5.6742640000000004e-05
279 _584_:X 0
280 _681_:D 0
*RES
377 *54:1 *54:2 3.946428571428571
378 *54:3 _584_:X 6.982142857142857
379 _584_:X _584_:X 0
380 *54:3 *54:1 0
381 _681_:D _681_:D 0
382 _681_:D *54:2 0
*END

*D_NET *55 4.4105280000000005e-05
*CONN
*I _682_:D I
*I _585_:X O
*CAP
281 *55:1 1.3328e-05
282 *55:3 2.035112e-05
283 _682_:D 1.0426159999999999e-05
284 *55:4 0
*RES
383 *55:1 *55:2 4.857142857142857
384 *55:3 _585_:X 2.464285714285714
385 _682_:D *55:4 1.232142857142857
386 *55:4 *55:1 0
387 *55:3 *55:2 0
388 _682_:D _682_:D 0
*END

*D_NET *56 4.165e-06
*CONN
*I _645_:D I
*I _455_:X O
*CAP
285 *56:1 4.165e-06
286 _645_:D 0
287 _455_:X 0
*RES
389 *56:1 *56:2 1.5178571428571426
390 _645_:D _645_:D 0
391 _645_:D *56:1 0
392 _455_:X _455_:X 0
393 _455_:X *56:2 0
*END

*D_NET *57 4.165e-06
*CONN
*I _646_:D I
*I _456_:X O
*CAP
288 *57:1 4.165e-06
289 _646_:D 0
290 _456_:X 0
*RES
394 *57:1 *57:2 1.5178571428571426
395 _646_:D _646_:D 0
396 _646_:D *57:1 0
397 _456_:X *57:2 0
*END

*D_NET *58 4.165e-06
*CONN
*I _683_:D I
*I _592_:X O
*CAP
291 *58:1 4.165e-06
292 _592_:X 0
293 _683_:D 0
*RES
398 *58:1 *58:2 1.5178571428571426
399 _592_:X _592_:X 0
400 _592_:X *58:2 0
401 _683_:D _683_:D 0
402 _683_:D *58:1 0
*END

*D_NET *59 2.4516120000000002e-05
*CONN
*I _684_:D I
*I _593_:X O
*CAP
294 *59:1 4.165e-06
295 *59:3 2.035112e-05
296 _684_:D 0
297 *59:4 0
*RES
403 *59:1 *59:2 1.5178571428571426
404 *59:3 *59:4 2.464285714285714
405 _684_:D _684_:D 0
406 _684_:D *59:1 0
407 *59:4 *59:2 0
408 *59:3 *59:3 0
*END

*D_NET *60 5.7646680000000004e-05
*CONN
*I _685_:D I
*I _599_:X O
*CAP
298 *60:1 1.0829e-05
299 _685_:D 4.681768e-05
300 _599_:X 0
301 *60:3 0
*RES
409 *60:1 *60:2 3.946428571428571
410 _685_:D *60:3 5.75
411 _599_:X _599_:X 0
412 _599_:X *60:1 0
413 *60:3 *60:2 0
414 _685_:D _685_:D 0
*END

*D_NET *61 3.8629760000000005e-05
*CONN
*I _686_:D I
*I _600_:X O
*CAP
302 _686_:D 2.6967760000000004e-05
303 *61:2 1.1662e-05
304 *61:1 0
305 _600_:X 0
*RES
415 _686_:D *61:1 3.2857142857142856
416 *61:2 *61:3 4.249999999999999
417 _686_:D _686_:D 0
418 *61:1 *61:2 0
419 _600_:X *61:3 0
*END

*D_NET *62 1.044984e-05
*CONN
*I _687_:D I
*I _606_:X O
*CAP
306 *62:1 3.332e-06
307 _606_:X 7.117840000000001e-06
308 _687_:D 0
*RES
420 *62:1 *62:2 1.2142857142857142
421 _606_:X _606_:X 0.8214285714285714
422 _687_:D _687_:D 0
423 _687_:D *62:1 0
424 _606_:X *62:2 0
425 _606_:X _606_:X 0
*END

*D_NET *63 1.7492999999999997e-05
*CONN
*I _688_:D I
*I _607_:X O
*CAP
309 *63:1 1.7492999999999997e-05
310 _688_:D 0
311 _607_:X 0
*RES
426 *63:1 *63:2 6.374999999999999
427 _688_:D _688_:D 0
428 _688_:D *63:1 0
429 _607_:X *63:2 0
*END

*D_NET *64 4.7721719999999995e-05
*CONN
*I _689_:D I
*I _613_:X O
*CAP
312 *64:1 1.0829e-05
313 *64:3 3.6892719999999995e-05
314 _689_:D 0
315 _613_:X 0
*RES
430 *64:1 *64:2 3.946428571428571
431 *64:3 _613_:X 4.517857142857142
432 _689_:D _689_:D 0
433 _689_:D *64:1 0
434 *64:3 *64:2 0
435 _613_:X _613_:X 0
*END

*D_NET *65 1.1662e-05
*CONN
*I _690_:D I
*I _614_:X O
*CAP
316 *65:1 1.1662e-05
317 _690_:D 0
318 _614_:X 0
*RES
436 *65:1 *65:2 4.249999999999999
437 _690_:D _690_:D 0
438 _690_:D *65:1 0
439 _614_:X *65:2 0
*END

*D_NET *66 3.122748e-05
*CONN
*I _691_:D I
*I _620_:X O
*CAP
319 *66:1 1.373448e-05
320 *66:2 1.7492999999999997e-05
321 _691_:D 0
322 _620_:X 0
*RES
440 *66:1 _691_:D 1.6428571428571428
441 *66:2 *66:3 6.374999999999999
442 *66:1 *66:2 0
443 _691_:D _691_:D 0
444 _620_:X _620_:X 0
445 _620_:X *66:3 0
*END

*D_NET *67 3.541616e-05
*CONN
*I _692_:D I
*I _621_:X O
*CAP
323 *67:1 2.499e-05
324 _621_:X 1.0426159999999999e-05
325 _692_:D 0
326 *67:3 0
*RES
446 *67:1 *67:2 9.107142857142856
447 _621_:X *67:3 1.232142857142857
448 _692_:D _692_:D 0
449 _692_:D *67:2 0
450 *67:3 *67:1 0
*END

*D_NET *68 2.782444e-05
*CONN
*I _693_:D I
*I _628_:X O
*CAP
327 *68:1 4.165e-06
328 *68:3 2.3659440000000002e-05
329 _693_:D 0
330 _628_:X 0
*RES
451 *68:1 *68:2 1.5178571428571426
452 *68:3 _628_:X 2.875
453 _693_:D _693_:D 0
454 _693_:D *68:1 0
455 *68:3 *68:2 0
456 _628_:X _628_:X 0
*END

*D_NET *69 5.900455999999999e-05
*CONN
*I _694_:D I
*I _629_:X O
*CAP
331 _694_:D 3.6892719999999995e-05
332 *69:2 1.4993999999999999e-05
333 *69:4 7.117840000000001e-06
334 *69:1 0
*RES
457 _694_:D *69:1 4.517857142857142
458 *69:2 *69:3 5.4642857142857135
459 *69:4 _629_:X 0.8214285714285714
460 _694_:D _694_:D 0
461 *69:1 *69:2 0
462 *69:4 *69:3 0
*END

*D_NET *70 4.105771999999999e-05
*CONN
*I _695_:D I
*I _635_:X O
*CAP
335 _695_:D 3.6892719999999995e-05
336 *70:2 4.165e-06
337 *70:1 0
338 _635_:X 0
*RES
463 _695_:D *70:1 4.517857142857142
464 *70:2 *70:3 1.5178571428571426
465 _695_:D _695_:D 0
466 *70:1 *70:2 0
467 _635_:X _635_:X 0
468 _635_:X *70:3 0
*END

*D_NET *71 2.8704799999999997e-05
*CONN
*I _696_:D I
*I _636_:X O
*CAP
339 _696_:D 1.70428e-05
340 *71:2 1.1662e-05
341 *71:1 0
342 _636_:X 0
*RES
469 _696_:D *71:1 2.0535714285714284
470 *71:2 *71:3 4.249999999999999
471 _696_:D _696_:D 0
472 *71:1 *71:3 0
473 _636_:X *71:2 0
*END
